Timing for main branch start
Timing finished

======================= ex 1 =======================
time elapsed:  0 hours, 0 minutes, 33 seconds, 833 milliseconds
Residuals:  [1.942890293094024e-14, 1.7763568394002505e-15, 5.551115123125783e-17, 2.7755575615628914e-17, 1.956081932919669e-16, 3.552713678800501e-15, 3.885780586188048e-16, 1.1102230246251565e-16] 

Max Residual:  1.942890293094024e-14
Roots:  [[ 9.28856158e-01 -6.19368234e-01  6.15237392e-02  2.47964185e-01]
 [ 3.27468950e-16 -9.24196241e-01 -1.33014875e-01 -7.91181366e-01]]

======================= ex 2 =======================
time elapsed:  0 hours, 0 minutes, 1 seconds, 727 milliseconds
Residuals:  [3.275779647538002e-11, 1.3211653993039363e-14, 1.1102230246251565e-16, 0.0] 

Max Residual:  3.275779647538002e-11
Roots:  [[-0.94880885 -0.41736849  0.90023823  0.46593911]]

======================= ex 3 =======================
time elapsed:  0 hours, 0 minutes, 0 seconds, 95 milliseconds
Residuals:  [1.4430730915782064e-16, 2.443249595696084e-16, 1.1102230246251565e-16, 1.1102230246251565e-16, 1.260385025514399e-16, 2.463307335887066e-16, 1.1102230246251565e-16, 0.0, 1.5178830414797062e-16, 2.2142118867585214e-16, 0.0, 0.0, 1.5005358067199381e-16, 1.474514954580286e-17, 0.0, 2.220446049250313e-16] 

Max Residual:  2.463307335887066e-16
Roots:  [[ 0.07815205 -0.02184795 -0.99670202  0.94039791]
 [ 0.06097314  0.01505594 -0.99802585  0.92199676]
 [ 0.11505594 -0.03902686 -0.99259208  0.91656299]
 [ 0.17024336  0.07024336 -0.98289525  0.74240853]]

======================= ex 4 =======================
time elapsed:  0 hours, 0 minutes, 0 seconds, 505 milliseconds
Residuals:  [0.0, 1.4210854715202004e-14, 1.545430450278218e-13, 1.4038976467379339e-12] 

Max Residual:  1.4038976467379339e-12
Roots:  [[ 5.00000000e-01 -5.00000000e-01  1.00000000e+00  1.33639609e-12]]
Received SIGALRM
example 5 exited with . Onto the next

======================= ex 7 =======================
time elapsed:  0 hours, 0 minutes, 15 seconds, 314 milliseconds
Residuals:  [2.1592137092929455e-15, 0.0, 0.0, 0.0, 1.4930798945178516e-15, 1.1102230246251565e-16, 8.326672684688674e-17, 1.1102230246251565e-16] 

Max Residual:  2.1592137092929455e-15
Roots:  [[-0.29112528 -0.53956026 -0.83068554  0.58225056]
 [-0.29112528  0.53956026  0.24843499  0.58225056]]

======================= ex 8 =======================
time elapsed:  0 hours, 0 minutes, 1 seconds, 592 milliseconds
Residuals:  [8.881784197001252e-16, 1.7763568394002505e-15, 5.551115123125783e-17, 5.551115123125783e-17] 

Max Residual:  1.7763568394002505e-15
Roots:  [[ 0.54930614 -0.92429456  0.12499614  0.24999228]]

======================= ex 9 =======================
time elapsed:  0 hours, 0 minutes, 0 seconds, 29 milliseconds
Residuals:  [0.0, 0.0, 0.0, 0.0] 

Max Residual:  0.0
Roots:  [[0. 0. 0. 0.]]

======================= ex 10 =======================
time elapsed:  0 hours, 0 minutes, 17 seconds, 803 milliseconds
Residuals:  [1.3677947663381929e-13, 3.060226253758541e-17, 1.57183328852728e-10, 1.1102230246251565e-16, 1.3666845433135677e-13, 2.4109796490974907e-16, 1.57183328852728e-10, 1.1102230246251565e-16] 

Max Residual:  1.57183328852728e-10
Roots:  [[-4.46764373e-01 -2.95648221e-11  6.28733315e-11  4.46764373e-01]
 [ 4.46764373e-01  2.95647113e-11  6.28733315e-11 -4.46764373e-01]]

======================= ex 11 =======================
time elapsed:  0 hours, 0 minutes, 0 seconds, 559 milliseconds
Residuals:  [7.105427357601002e-14, 2.275957200481571e-15, 0.0, 1.3877787807814457e-17, 0.0, 1.1102230246251565e-15, 0.0, 1.1102230246251565e-16] 

Max Residual:  7.105427357601002e-14
Roots:  [[ 0.8165472   0.16666778  0.90850498 -0.07471   ]
 [ 0.69591997  0.37026642  1.21766107  0.15147469]]
ex 12 polished residuals
time elapsed:  0 hours, 0 minutes, 0 seconds, 114 milliseconds
Residuals:  [mpf('0.0'), mpf('0.0'), mpf('3.3409558876152445576756705839393523485189961001313109e-52'), mpf('3.3409558876152445576756705839393523485189961001313109e-52'), mpf('0.0'), mpf('0.0'), mpf('3.3409558876152445576756705839393523485189961001313109e-52'), mpf('0.0'), mpf('0.0'), mpf('0.0'), mpf('3.3409558876152445576756705839393523485189961001313109e-52'), mpf('3.3409558876152445576756705839393523485189961001313109e-52')] 

Max Residual:  3.3409558876152445576756705839393523485189961001313e-52
Roots:  [[mpf('0.10000000000000000555111512312578270211815834045410156')
  mpf('0.47968739820845823320037014929358048384094672525505525')
  mpf('-0.48999999999999997969877897828285141170300564816554406')
  mpf('0.11031260179154175204952395211505362998021726336459071')]
 [mpf('0.10000000000000000555111512312578270211815834045410156')
  mpf('0.47968739820845823320037014929358048384094672525505525')
  mpf('0.48999999999999997969877897828285141170300564816554406')
  mpf('-0.86968739820845820734803400445064919342579403296649842')]
 [mpf('0.10000000000000000555111512312578270211815834045410156')
  mpf('-0.47968739820845823320037014929358048384094672525505525')
  mpf('0.48999999999999997969877897828285141170300564816554406')
  mpf('0.08968739820845825905270629413651177425609941754361175')]]
[[mpf('0.10000000000000000555111512312578270211815834045410156')
  mpf('0.47968739820845823320037014929358048384094672525505525')
  mpf('-0.48999999999999997969877897828285141170300564816554406')
  mpf('0.11031260179154175204952395211505362998021726336459071')]
 [mpf('0.10000000000000000555111512312578270211815834045410156')
  mpf('0.47968739820845823320037014929358048384094672525505525')
  mpf('0.48999999999999997969877897828285141170300564816554406')
  mpf('-0.86968739820845820734803400445064919342579403296649842')]
 [mpf('0.10000000000000000555111512312578270211815834045410156')
  mpf('-0.47968739820845823320037014929358048384094672525505525')
  mpf('0.48999999999999997969877897828285141170300564816554406')
  mpf('0.08968739820845825905270629413651177425609941754361175')]]

======================= ex 12 =======================
time elapsed:  0 hours, 0 minutes, 0 seconds, 114 milliseconds
Residuals:  [5.551115123125783e-17, 1.6878860551367462e-17, 5.551115123125783e-17, 1.3877787807814457e-17, 5.551115123125783e-17, 1.6878860551367462e-17, 5.551115123125783e-17, 0.0, 2.7755575615628914e-17, 2.0647545325229095e-17, 2.7755575615628914e-17, 4.163336342344337e-17] 

Max Residual:  5.551115123125783e-17
Roots:  [[ 0.1        0.4796874 -0.49       0.1103126]
 [ 0.1        0.4796874  0.49      -0.8696874]
 [ 0.1       -0.4796874  0.49       0.0896874]]
Received SIGALRM
example 13 exited with . Onto the next

======================= ex 14 =======================
time elapsed:  0 hours, 0 minutes, 35 seconds, 68 milliseconds
Residuals:  [4.893880856116084e-10, 1.1371684776482727e-15, 7.105427357601002e-15, 0.0, 1.5384598039958064e-09, 7.081430968085996e-17, 3.250177904590146e-14, 0.0, 2.3199886456382046e-10, 1.8618246031771918e-16, 3.6637359812630166e-15, 0.0, 1.1683919387550645e-09, 8.508730527045025e-17, 2.481348460037225e-14, 2.7755575615628914e-17, 1.3739653859090595e-09, 8.48030903315471e-17, 2.9254376698872875e-14, 1.1796119636642288e-16] 

Max Residual:  1.5384598039958064e-09
Roots:  [[-0.45256967 -0.8340096  -0.82722722 -0.44578729]
 [-0.18026107  0.2421254   0.19704724 -0.22533922]
 [ 0.46240468 -0.77161964 -0.71889145  0.51513287]
 [ 0.1456112   0.26366627  0.20947332  0.09141824]
 [ 0.03015148  0.25629148  0.20458188 -0.02155812]]
Received SIGALRM
example 15 exited with . Onto the next

======================= ex 16 =======================
time elapsed:  0 hours, 0 minutes, 5 seconds, 31 milliseconds
Residuals:  [2.0856552272979525e-16, 8.839667718044441e-16, 1.6146722622778981e-16, 0.0, 2.0813993594606499e-16, 1.7698923676149212e-16, 1.4237557200675357e-16, 0.0, 1.870017417113636e-16, 5.087715916524974e-16, 0.0, 5.551115123125783e-17, 6.935284672594058e-16, 7.606878846785429e-16, 1.7025210391179347e-16, 0.0, 2.9286659449276025e-16, 1.860223472735142e-15, 1.205330284288534e-16, 0.0, 3.042227429394438e-16, 7.33889866414833e-17, 0.0, 5.551115123125783e-17, 1.858863548484223e-16, 9.954701385283413e-17, 0.0, 0.0, 2.4153375861245827e-16, 1.255049935896615e-16, 1.680881159701985e-16, 5.551115123125783e-17, 2.501324619120185e-16, 1.456286079975851e-16, 0.0, 2.220446049250313e-16, 7.60978469862701e-17, 1.9982981501798735e-16, 0.0, 1.1102230246251565e-16, 1.3994682034360367e-16, 0.0, 8.249455569851264e-17, 1.1102230246251565e-16, 2.251106095723988e-16, 7.172760962097188e-17, 0.0, 0.0, 6.524586754528018e-17, 1.7316162861620768e-16, 2.4058101311067643e-16, 0.0, 1.9430799847160119e-16, 1.3552421273494986e-16, 0.0, 9.71445146547012e-17, 0.0, 3.7727583010270757e-16, 1.9623698709725038e-16, 1.1102230246251565e-16, 0.0, 5.411207361148701e-16, 1.561401182833424e-16, 0.0, 2.6079090072330166e-16, 3.071618635868645e-17, 8.492198007098091e-17, 1.1102230246251565e-16, 1.2600344444361724e-16, 4.328057532333778e-17, 0.0, 0.0, 1.2662551323214436e-16, 2.130404778167247e-16, 1.8680113548454276e-16, 1.1102230246251565e-16, 1.4861061906247185e-16, 1.656339039276513e-16, 7.996761971526461e-16, 5.551115123125783e-17, 2.374048168707646e-16, 2.4134872968932064e-16, 0.0, 0.0, 1.1956600968970745e-16, 1.9937033847509006e-18, 1.0840378987346245e-16, 1.1102230246251565e-16, 1.0361764571951013e-16, 8.334812012687872e-18, 8.691286216435309e-17, 5.551115123125783e-17, 7.549968716947384e-17, 1.9740927679724495e-17, 5.838769223558698e-17, 2.7755575615628914e-17, 6.350091531338917e-17, 1.0501452345441616e-16, 0.0, 2.7755575615628914e-17, 0.0, 1.0387215847177033e-16, 8.280199034776122e-17, 2.7755575615628914e-17, 1.6922059645724885e-16, 2.248122081802e-17, 5.722911402212492e-17, 0.0, 9.099458172784726e-17, 1.3945117062275525e-17, 1.346374536301758e-16, 2.7755575615628914e-17, 9.570685231827467e-17, 1.1678627961766799e-16, 0.0, 0.0, 0.0, 0.0, 0.0, 5.551115123125783e-17, 2.0197066632739523e-16, 0.0, 5.487102796482242e-16, 0.0] 

Max Residual:  1.860223472735142e-15
Roots:  [[-0.79813642 -0.73414858 -0.5597325  -0.62372033]
 [-0.95671476 -0.52649865 -0.22074445 -0.65096056]
 [-0.81352405 -0.84055029 -0.46117434 -0.4341481 ]
 [-0.46517557 -0.83097873 -0.82233434 -0.45653118]
 [-0.37619019 -0.93325785 -0.77340781 -0.21634015]
 [-0.74198328 -0.30248593  0.9305777   0.49108035]
 [-0.80988779  0.46669101  0.84284117 -0.43373762]
 [-0.76246025  0.44870096  0.90647937 -0.30468185]
 [-0.7630262   0.31312574  0.90578666 -0.17036528]
 [-0.78104642  0.71602259  0.88293157 -0.61413744]
 [-0.77330352  0.77330352  0.5747883  -0.97181874]
 [-0.72006078  0.52875931  0.95442394 -0.29439615]
 [-0.45541437  0.87059715  0.79027531 -0.53573621]
 [-0.78080559  0.05433318  0.88324755  0.04810878]
 [ 0.69974754 -0.9162572  -0.72667289  0.88933184]
 [ 0.23904826 -0.55680839 -0.49718927  0.29866738]
 [ 0.29541367  0.85452271 -0.38941182 -0.94852086]
 [ 0.29897295  0.89980258 -0.3814723  -0.98230193]
 [ 0.59880532  0.61784635 -0.32494791 -0.34398895]
 [ 0.93103308  0.63995474 -0.4583278  -0.16724946]
 [ 0.97261162  0.60739672 -0.12136012  0.24385478]
 [ 0.22873421  0.85698268  0.81398816  0.18573968]
 [ 0.22694519  0.83248138  0.81682646  0.21129028]
 [ 0.22572191  0.81529531  0.81875478  0.22918137]
 [ 0.12571497  0.85072173  0.94845696  0.2234502 ]
 [ 0.13006317  0.85484399  0.94378293  0.21900211]
 [ 0.47597925  0.83163591  0.70784087  0.3521842 ]
 [ 0.28783773  0.87059715  0.79027531  0.20751589]
 [ 0.98998211  0.68725323  0.33942344  0.64215232]
 [ 0.58301428  0.80607177  0.65120666  0.42814917]
 [ 0.65541437  0.87059715  0.79027531  0.57509253]]

======================= ex 17 =======================
time elapsed:  0 hours, 0 minutes, 8 seconds, 844 milliseconds
Residuals:  [8.41870677195804e-13, 8.41870677195804e-13, 2.47864412950115e-16, 1.1714958554598258e-18, 8.409824987761038e-13, 3.3306690738754696e-16, 8.409824987761038e-13, 1.347648967589216e-16, 1.3322676295501878e-15, 8.400943203564037e-13, 8.396502311465536e-13, 1.1969162317051925e-16, 8.392061419367036e-13, 6.661338147750939e-16, 8.396502311465536e-13, 1.5460799593922254e-17, 1.6653345369377348e-15, 8.396502311465536e-13, 8.409824987761038e-13, 2.931814340390556e-17, 8.396502311465536e-13, 8.396502311465536e-13, 4.1579494307884266e-16, 5.638746721151634e-17, 5.51091059645229e-16, 1.83697019881743e-16, 1.8369701988174354e-16, 1.232595164407831e-32] 

Max Residual:  8.41870677195804e-13
Roots:  [[-5.23598776e-01 -5.23598776e-01 -8.26214710e-17 -8.14499751e-17]
 [-5.51290604e-17 -5.23598776e-01 -5.23598776e-01 -2.37425943e-17]
 [-5.23598776e-01 -1.54002683e-16  5.23598776e-01 -1.02352982e-16]
 [-1.12163885e-16  5.23598776e-01  5.23598776e-01 -1.54607996e-17]
 [ 5.23598776e-01 -7.67489384e-17 -5.23598776e-01 -3.03748764e-16]
 [ 5.23598776e-01  5.23598776e-01 -2.75760119e-17  2.70588234e-17]
 [-6.12323400e-17 -6.12323400e-17 -6.12323400e-17 -6.12323400e-17]]

======================= ex 18 =======================
time elapsed:  0 hours, 0 minutes, 0 seconds, 816 milliseconds
Residuals:  [0.2103165886103482, 2.3350045150248174e-18, 0.0, 1.3877787807814457e-16] 

Max Residual:  0.2103165886103482
Roots:  [[-2.95156523e-18  1.00000000e+00  7.91107202e-01 -2.08892798e-01]]
